*Heading
************************************************************************
** PARAMETERS (SI UNIT SYSTEM)
************************************************************************
*Parameter
** geometric parameters, element properties, and material ID
nDim        = 2
nStress     = 4
nNode       = 4
nInt        = 4
fbar        = 0
matID       = 1
nIons       = 2
nIonProps   = 5
matProps    = 15 + nIons*nIonProps
intProps    = 5
nstatev     = (nIons + 2)
nsvars      = nstatev*nInt
nPostVars   = 2*nStress + nstatev
**
** physical constants and material properties
**
Rgas        = 8.3145
Fcon        = 96485.0
theta       = 298.0
phi0        = 0.312
rho         = 1100.0
Gshear      = 48.0e3
kappa       = 50.0*Gshear
pKa         = 5.0
Cp_fix      = 460.0
Vp          = 8.928e-3
Zp          = 1.0
mu0         = 0.0
Vw          = 1.8e-5
chi         = 0.40
Dw          = 9.0e-7
**
** properties of ions in gel
**
Cion1_gel   = 340.0
Cion2_gel   = 800.0
Omg0_1      = 0.
Omg0_2      = 0.
Vion_1      = 2.38e-6
Vion_2      = 2.24e-6
Zion_1      = 1.0
Zion_2      = -1.0
Dion_1      = 4.0e-8
Dion_2      = 4.0e-8
**
** initial conditions in gel (assuming zero electric potential and pressure)
**
RT          = Rgas*theta
Cw0_gel     = (1.0 - phi0)/Vw
**
initMU      = mu0 + RT*(phi0+log(1-phi0)+chi*phi0**2) - RT/Cw0_gel*(Cion1_gel + Cion2_gel)
initOmg1    = Omg0_1 + RT*log(Cion1_gel/Cw0_gel)
initOmg2    = Omg0_2 + RT*log(Cion2_gel/Cw0_gel)
**
** properties of ions in salt solution
**
Cw_sol        = 55000.0
**
Cion1_sol     = 200.0
Cion2_sol     = 200.0
**
mu_sol        = mu0 - RT/Cw_sol*(Cion1_sol + Cion2_sol)
omg1_sol      = Omg0_1 + RT*log(Cion1_sol/Cw_sol)
omg2_sol      = Omg0_2 + RT*log(Cion2_sol/Cw_sol)
**
*************************************************************************
** time parameters
t_eql           = 1.0
tRamp_eql       = 0.1
dtInit_eql      = 1.0e-3
dtMax_eql       = 0.25
**
t_swell         = 3600.0*24.0
tRamp_swl       = 180.0
dtInit_swl      = 1.0e-3
dtMax_swl       = 300.0
**
dtMin           = 1.0e-15
**
************************************************************************
** GEOMETRY and MESH
************************************************************************
*Node
1,           0.,           0.
2, 0.000210268525,           0.
3, 0.000415144488,           0.
4, 0.000614766148,           0.
5, 0.000809268269,           0.
6, 0.00099878211,           0.
7, 0.00118343579,           0.
8, 0.00136335369,           0.
9, 0.00153865735,           0.
10, 0.00170946517,           0.
11, 0.00187589251,           0.
12, 0.00203805161,           0.
13, 0.00219605188,           0.
14, 0.00234999997,           0.
15, 0.00249999994,           0.
16,           0., 0.000225261232
17, 0.000210268525, 0.000225261232
18, 0.000415144488, 0.000225261232
19, 0.000614766148, 0.000225261232
20, 0.000809268269, 0.000225261232
** ... 400 like lines cut
*User Element,Type=U4,Nodes=<nNode>,Coordinates=<nDim>,Properties=<matProps>,Iproperties=<intProps>,Variables=<nsvars>,Unsymm
1,2,11,12,13
*Element, type=U4
1,   1,   2,  17,  16
2,   2,   3,  18,  17
3,   3,   4,  19,  18
4,   4,   5,  20,  19
5,   5,   6,  21,  20
6,   6,   7,  22,  21
7,   7,   8,  23,  22
8,   8,   9,  24,  23
9,   9,  10,  25,  24
10,  10,  11,  26,  25
11,  11,  12,  27,  26
12,  12,  13,  28,  27
13,  13,  14,  29,  28
14,  14,  15,  30,  29
15,  16,  17,  32,  31
16,  17,  18,  33,  32
17,  18,  19,  34,  33
18,  19,  20,  35,  34
19,  20,  21,  36,  35
20,  21,  22,  37,  36
** ... 358 like lines cut
*System
*Nset, nset=all, generate
1,  420,    1
*Elset, elset=all, generate
1,  378,    1
*Nset, nset=bottom, generate
1,  15,   1
*Elset, elset=bottom, generate
1,  14,   1
*Nset, nset=left, generate
1,  406,   15
*Elset, elset=left, generate
1,  365,   14
*Nset, nset=right, generate
15,  420,   15
*Elset, elset=right, generate
14,  378,   14
*Nset, nset=top, generate
406,  420,    1
*Elset, elset=top, generate
365,  378,    1
*Element, type=CAX4
100001, 1, 2, 17, 16
100002, 2, 3, 18, 17
100003, 3, 4, 19, 18
100004, 4, 5, 20, 19
100005, 5, 6, 21, 20
100006, 6, 7, 22, 21
100007, 7, 8, 23, 22
100008, 8, 9, 24, 23
100009, 9, 10, 25, 24
100010, 10, 11, 26, 25
100011, 11, 12, 27, 26
100012, 12, 13, 28, 27
100013, 13, 14, 29, 28
100014, 14, 15, 30, 29
100015, 16, 17, 32, 31
100016, 17, 18, 33, 32
100017, 18, 19, 34, 33
100018, 19, 20, 35, 34
100019, 20, 21, 36, 35
100020, 21, 22, 37, 36
** ... 358 like lines cut
*Elset, elset=ElDummy, generate
100001,100378,1
** EXTRA ELEMENT
*Node
999996, 0.0, 0.0
999997, .00001, 0.0
999998, .00001, .00001
999999, 0.0, .00001
*Element, Type=CPE4T
999999,999996,999997,999998,999999
*Nset, nset=extraElement
999996,999997,999998,999999
*Elset,elset=extraElement
999999
*************************************************************************** 
** EXTRA ELEMENT FOR COUPLED TEMP-DISPLACEMENT STEP
*Node
999996, 0.0, 0.0
999997, .00001, 0.0
999998, .00001, .00001
999999, 0.0, .00001
*Element, Type=CPE4T
999999,999996,999997,999998,999999
*Nset, nset=extraElement
999996,999997,999998,999999
*Elset,elset=extraElement
999999
*************************************************************************** 
** MATERIAL DEFINITION 
***************************************************************************
** Material properties for the Swellable Gel Elements
*uel property,elset=all
** Rgas Fcon theta phi0 rho Gshear kappa pKa 
<Rgas>, <Fcon>, <theta>, <phi0>, <rho>, <Gshear>, <kappa>, <pKa>,
** Cp_fx Vp Zp mu0 Vw chi Dw Cion(k)
<Cp_fix>, <Vp>, <Zp>, <mu0>, <Vw>, <chi>, <Dw>, <Cion1_gel>,
** Cion_gel(k) ... Omg0(k) ... Vion(k)
<Omg0_1>, <Vion_1>, <Zion_1>, <Dion_1>, <Cion2_gel>, <Omg0_2>, <Vion_2>, <Zion_2>,
** Zion(k) ... Dion(k) nInt fbar matID nIonProps nPostVars 
<Dion_2>, <nInt>, <fbar>, <matID>, <nIonProps>, <nPostVars>
**
***************************************************************************
*Solid section, elset=ElDummy, material=DummyMaterial 
*Material, name=DummyMaterial
*Elastic
1.e-20
** strain and stress vector (3+3) and polymer vol fraction as user output
*User output variables
<nPostVars>
***************************************************************************
*Solid section, elset=extraElement, material=extraMaterial
*Material, name=extraMaterial
*Elastic
1.e-20
*Conductivity
1.0
*Density
1.0
*Specific heat
1.0
************************************************************************
** AMPLITUDE DEFINITION
************************************************************************
** as-prepared to salt solution
*Amplitude, name=mu_prep_to_sol, definition = smooth step
0.0, <initMU>, <tRamp_swl>, <mu_sol>
*Amplitude, name=omg1_prep_to_sol, definition = smooth step
0.0, <initOmg1>, <tRamp_swl>, <omg1_sol>
*Amplitude, name=omg2_prep_to_sol, definition = smooth step
0.0, <initOmg2>, <tRamp_swl>, <omg2_sol>
**
************************************************************************
** INITIAL CONDITIONS
************************************************************************
** Define the initial chemical potential
*Initial conditions, type=temperature
all, <initMU>, <initOmg1>, <initOmg2>
** Define an arbitrary initial condition for the ‘‘extra’’ element. 
*Initial conditions, type=temperature
extraElement, 0.0
************************************************************************
** STEP DEFINITION
************************************************************************
** this step equilibrates the gel to its as-prepared state
*Step, Name=as_prep, nlgeom=yes, inc=50000, UNSYMM=YES
*Coupled temperature-displacement, stabilize, deltmx=1000.0
<dtInit_eql>, <t_eql>, <dtMin>, <dtMax_eql>
*CONTROLS, PARAMETERS=TIME INCREMENTATION
,,,,,,,30,,,,,,
*CONTROLS, PARAMETERS=LINE SEARCH
10,1.0,0.0001,0.25,0.10
*Boundary
left,1,1,0.0
bottom,2,2,0.0
all, 11, 11, <initMU>
all, 12, 12, <initOmg1>
all, 13, 13, <initOmg2>
extraElement,encastre
extraElement,11,11,0.0
**
*Restart, write, overlay
*Output, field, frequency=2, time marks=no
*node output, nset=all
u, nt, rf   
** specify the user-defined output for the dummy element set
*element output, elset=elDummy
uvarm, le
*End Step
************************************************************************
************************************************************************
*Step, Name=swell, nlgeom=yes, inc=50000, UNSYMM=YES
*Coupled temperature-displacement, stabilize, deltmx=100.0
<dtInit_swl>, <t_swell>, <dtMin>, <dtMax_swl>
*CONTROLS, PARAMETERS=TIME INCREMENTATION
,,,,,,,30,,,,,,
*CONTROLS, PARAMETERS=LINE SEARCH
10,1.0,0.0001,0.25,0.10
**
*Boundary, op=new
left,1,1,0.0
bottom,2,2,0.0
** direct amplitude BC
*Boundary, amplitude=mu_prep_to_sol, op=new
top, 11, 11, 1.0
right, 11, 11, 1.0
*Boundary, amplitude=omg1_prep_to_sol, op=new
top, 12, 12, 1.0
right, 12, 12, 1.0
*Boundary, amplitude=omg2_prep_to_sol, op=new
top, 13, 13, 1.0
right, 13, 13, 1.0
**
*Boundary, op=new
extraElement,encastre
extraElement,11,11,0.0
**
*Restart, write, overlay
*Output, field, number interval=60, time marks=no
*node output, nset=all
u, nt, rf   
** specify the user-defined output for the dummy element set
*element output, elset=elDummy
uvarm, le
*End Step
*************************************************************************
*************************************************************************