*Heading
************************************************************************
** First run a free swelling simulation with a large plate_height
** Means deactivate the compression step
** Estimate the free swelling from the first run
** Make plate_height slightly smaller than free swelling height
** Compression step is likely to fail if plate is not in contact
** in the beginning of the compression step
************************************************************************
*Parameter
** geometric parameters, element properties, and material ID
nDim        = 2
nStress     = 4
nNode       = 4
nInt        = 4
fbar        = 0
matID       = 1
nIons       = 2
nIonProps   = 5
matProps    = 15 + nIons*nIonProps
intProps    = 5
nstatev     = (nIons + 2)
nsvars      = nstatev*nInt
nPostVars   = 2*nStress + nstatev
**
** physical constants and material properties
**
Rgas        = 8.3145
Fcon        = 96485.0
theta       = 298.0
phi0        = 0.31
rho         = 1100.0
Gshear      = 48.0e3
kappa       = 50.0*Gshear
pKa         = 5.0
Cp_fix      = 460.0
Vp          = 8.928e-3
Zp          = 1.0
mu0         = 0.0
Vw          = 1.8e-5
chi         = 0.40
Dw          = 9.0e-7
**
** properties of ions in gel
**
Cion1_gel   = 340.0
Cion2_gel   = 800.0
Omg0_1      = 0.
Omg0_2      = 0.
Vion_1      = 2.38e-6
Vion_2      = 2.24e-6
Zion_1      = 1.0
Zion_2      = -1.0
Dion_1      = 4.0e-8
Dion_2      = 4.0e-8
**
** initial conditions in gel (assuming zero electric potential and pressure)
**
RT          = Rgas*theta
Cw0_gel     = (1.0 - phi0)/Vw
**
initMU      = mu0 + RT*(phi0+log(1-phi0)+chi*phi0**2) - RT/Cw0_gel*(Cion1_gel + Cion2_gel)
initOmg1    = Omg0_1 + RT*log(Cion1_gel/Cw0_gel)
initOmg2    = Omg0_2 + RT*log(Cion2_gel/Cw0_gel)
**
** properties of ions in low salt solution
**
Cw_sol        = 55000.0
**
Cion1_sol     = 150.0
Cion2_sol     = 150.0
**
mu_sol        = mu0 - RT/Cw_sol*(Cion1_sol + Cion2_sol)
omg1_sol      = Omg0_1 + RT*log(Cion1_sol/Cw_sol)
omg2_sol      = Omg0_2 + RT*log(Cion2_sol/Cw_sol)
**
plate_height  = 4.41e-3
plate_length  = 12.5e-3
force         = 13.93
right_disp    = 3.66e-3
**
*************************************************************************
** time parameters
t_eql           = 1.0
tRamp_eql       = 0.1
dtInit_eql      = 1.0e-3
dtMax_eql       = 0.2
**
t_swell         = 1.0
tRamp_swl       = 0.1
dtInit_swl      = 1.0e-3
dtMax_swl       = 0.2
**
t_compress      = 12*3600.0
tRamp_comp      = 10.0
dtInit_comp     = 1.0e-6
dtMax_comp      = 300.0
**
dtMin           = 1.0e-15
**
************************************************************************
** GEOMETRY and MESH
************************************************************************
*Node
1,           0.,           0.
2, 0.00015366399,           0.
3, 0.000304484449,           0.
4, 0.00045251401,           0.
5, 0.000597804319,           0.
6, 0.000740406045,           0.
7, 0.000880368927,           0.
8, 0.00101774186,           0.
9, 0.00115257269,           0.
10, 0.0012849085,           0.
11, 0.00141479552,           0.
12, 0.00154227903,           0.
13, 0.00166740338,           0.
14, 0.00179021235,           0.
15, 0.00191074878,           0.
16, 0.0020290548,           0.
17, 0.0021451714,           0.
18, 0.00225913944,           0.
19, 0.0023709985,           0.
20, 0.00248078746,           0.
** ... 405 like lines cut
*User Element,Type=U4,Nodes=<nNode>,Coordinates=<nDim>,Properties=<matProps>,Iproperties=<intProps>,Variables=<nsvars>,Unsymm
1,2,11,12,13
*Element, type=U4
1,   1,   2,  27,  26
2,   2,   3,  28,  27
3,   3,   4,  29,  28
4,   4,   5,  30,  29
5,   5,   6,  31,  30
6,   6,   7,  32,  31
7,   7,   8,  33,  32
8,   8,   9,  34,  33
9,   9,  10,  35,  34
10,  10,  11,  36,  35
11,  11,  12,  37,  36
12,  12,  13,  38,  37
13,  13,  14,  39,  38
14,  14,  15,  40,  39
15,  15,  16,  41,  40
16,  16,  17,  42,  41
17,  17,  18,  43,  42
18,  18,  19,  44,  43
19,  19,  20,  45,  44
20,  20,  21,  46,  45
** ... 364 like lines cut
*System
*Nset, nset=all, generate
1,  425,    1
*Elset, elset=all, generate
1,  384,    1
*Nset, nset=bottom, generate
1,  25,   1
*Elset, elset=bottom, generate
1,  24,   1
*Nset, nset=left, generate
1,  401,   25
*Elset, elset=left, generate
1,  361,   24
*Nset, nset=right, generate
25,  425,   25
*Elset, elset=right, generate
24,  384,   24
*Nset, nset=top, generate
401,  425,    1
*Elset, elset=top, generate
361,  384,    1
*Surface, Type=Node , Name=TopSurf
Top
*Element, type=CAX4
100001, 1, 2, 27, 26
100002, 2, 3, 28, 27
100003, 3, 4, 29, 28
100004, 4, 5, 30, 29
100005, 5, 6, 31, 30
100006, 6, 7, 32, 31
100007, 7, 8, 33, 32
100008, 8, 9, 34, 33
100009, 9, 10, 35, 34
100010, 10, 11, 36, 35
100011, 11, 12, 37, 36
100012, 12, 13, 38, 37
100013, 13, 14, 39, 38
100014, 14, 15, 40, 39
100015, 15, 16, 41, 40
100016, 16, 17, 42, 41
100017, 17, 18, 43, 42
100018, 18, 19, 44, 43
100019, 19, 20, 45, 44
100020, 20, 21, 46, 45
** ... 364 like lines cut
*Elset, elset=ElDummy, generate
100001,100384,1
** EXTRA ELEMENT
*Node
999996, 0.0, 0.0
999997, .00001, 0.0
999998, .00001, .00001
999999, 0.0, .00001
*Element, Type=CPE4T
999999,999996,999997,999998,999999
*Nset, nset=extraElement
999996,999997,999998,999999
*Elset,elset=extraElement
999999
**
************************************************************************
** RIGID SURFACE AND CONTACT CONDITIONS
************************************************************************
**
*Node
1000, 0, <plate_height>
*Nset, Nset=RigidRef
1000,
*Surface, type=SEGMENTS, name=RigidSurf
START, <plate_length>, <plate_height>
LINE, 0, <plate_height>
*Rigid Body, ref node=RigidRef, analytical surface=RigidSurf
**
**
*Contact Pair, Interaction=int, Type=node to surface
TopSurf,RigidSurf
**
*Surface Interaction, name=int
*Friction
0.0
*Surface Behavior, pressure-overclosure=hard
**
***************************************************************************
** MATERIAL DEFINITION
***************************************************************************
** Material properties for the Swellable Gel Elements
*uel property,elset=all
** Rgas Fcon theta phi0 rho Gshear kappa lam_L
<Rgas>, <Fcon>, <theta>, <phi0>, <rho>, <Gshear>, <kappa>, <pKa>,
** Cp_fx Vp Zp mu0 Vw chi Dw Cion(k)
<Cp_fix>, <Vp>, <Zp>, <mu0>, <Vw>, <chi>, <Dw>, <Cion1_gel>,
** Cion_gel(k) ... Omg0(k) ... Vion(k)
<Omg0_1>, <Vion_1>, <Zion_1>, <Dion_1>, <Cion2_gel>, <Omg0_2>, <Vion_2>, <Zion_2>,
** Zion(k) ... Dion(k) nInt fbar matID nIonProps nPostVars
<Dion_2>, <nInt>, <fbar>, <matID>, <nIonProps>, <nPostVars>
**
***************************************************************************
*Solid section, elset=ElDummy, material=DummyMaterial
*Material, name=DummyMaterial
*Elastic
1.e-20
** strain and stress vector (3+3) and polymer vol fraction as user output
*User output variables
<nPostVars>
***************************************************************************
*Solid section, elset=extraElement, material=extraMaterial
*Material, name=extraMaterial
*Elastic
1.e-20
*Conductivity
1.0
*Density
1.0
*Specific heat
1.0
************************************************************************
** AMPLITUDE DEFINITION
************************************************************************
** as-prepared to low salt solution
*Amplitude, name=mu_init_to_sol, definition = smooth step
0.0, <initMU>, <tRamp_swl>, <mu_sol>
*Amplitude, name=omg1_init_to_sol, definition = smooth step
0.0, <initOmg1>, <tRamp_swl>, <omg1_sol>
*Amplitude, name=omg2_init_to_sol, definition = smooth step
0.0, <initOmg2>, <tRamp_swl>, <omg2_sol>
**
*Amplitude, name=ForceAmp
0.0, 0.0, <tRamp_comp>, <force>
**
************************************************************************
** INITIAL CONDITIONS
************************************************************************
** Define the initial chemical potential
*Initial conditions, type=temperature
all, <initMU>, <initOmg1>, <initOmg2>
** Define an arbitrary initial condition for the ‘‘extra’’ element.
*Initial conditions, type=temperature
extraElement, 0.0
************************************************************************
** STEP DEFINITION
************************************************************************
** this step equilibrates the gel to its as-prepared state
*Step, Name=init, nlgeom=yes, inc=50000, UNSYMM=YES
*Coupled temperature-displacement, stabilize, deltmx=1000.0
<dtInit_eql>, <t_eql>, <dtMin>, <dtMax_eql>
*CONTROLS, PARAMETERS=TIME INCREMENTATION
,,,,,,,30,,,,,,
*CONTROLS, PARAMETERS=LINE SEARCH
10,1.0,0.0001,0.25,0.10
*Boundary
left,1,1,0.0
bottom,2,2,0.0
all, 11, 11, <initMU>
all, 12, 12, <initOmg1>
all, 13, 13, <initOmg2>
RigidRef,encastre
extraElement,encastre
extraElement,11,11,0.0
**
*Restart, write, overlay
*Output, field, frequency=2, time marks=no
*node output, nset=all
u, nt, rf
** specify the user-defined output for the dummy element set
*element output, elset=elDummy
uvarm, le
*End Step
************************************************************************
************************************************************************
*Step, Name=swell, nlgeom=yes, inc=50000, UNSYMM=YES
*Coupled temperature-displacement, stabilize, deltmx=100.0
<dtInit_swl>, <t_swell>, <dtMin>, <dtMax_swl>
*CONTROLS, PARAMETERS=TIME INCREMENTATION
,,,,,,,30,,,,,,
*CONTROLS, PARAMETERS=LINE SEARCH
10,1.0,0.0001,0.25,0.10
*Contact controls, STABILIZE
**
*Boundary, op=new
left,1,1,0.0
bottom,2,2,0.0
right,1,1,<right_disp>
RigidRef,encastre
** direct amplitude BC
*Boundary, amplitude=mu_init_to_sol, op=new
all, 11, 11, 1.0
*Boundary, amplitude=omg1_init_to_sol, op=new
all, 12, 12, 1.0
*Boundary, amplitude=omg2_init_to_sol, op=new
all, 13, 13, 1.0
**
*Boundary, op=new
extraElement,encastre
extraElement,11,11,0.0
**
*Restart, write, overlay
*Output, field, frequency=2, time marks=no
*node output, nset=all
u, nt, rf
** specify the user-defined output for the dummy element set
*element output, elset=elDummy
uvarm, le
*End Step
************************************************************************
************************************************************************
*Step, Name=compress, nlgeom=yes, convert sdi = yes, inc=50000, UNSYMM=YES
*Coupled temperature-displacement, STABILIZE, ALLSDTOL, CONTINUE=yes, deltmx=100.0
<dtInit_comp>, <t_compress>, <dtMin>, <dtMax_comp>
*CONTROLS, PARAMETERS=TIME INCREMENTATION
,,,,,,,30,,,,,,
*CONTROLS, PARAMETERS=LINE SEARCH
10,1.0,0.0001,0.25,0.10
*Contact controls, STABILIZE
**
*Boundary, op=new
left,1,1,0.0
bottom,2,2,0.0
right,1,1,<right_disp>
**
right, 11, 11, <mu_sol>
right, 12, 12, <omg1_sol>
right, 13, 13, <omg2_sol>
**
RigidRef,1,1,0.0
RigidRef,3,6,0.0
**
*Cload, amplitude=ForceAmp
RigidRef, 2, -1.0
**
*Boundary, op=new
extraElement,encastre
extraElement,11,11,0.0
**
*Restart, write, overlay
*Output, field, frequency=1, time marks=no
*node output, nset=all
u, nt, rf
*node output, nset=RigidRef
u,rf
** specify the user-defined output for the dummy element set
*element output, elset=elDummy
uvarm, le
*Output, history
*node output,nset=RigidRef
u2,rf2
*End Step
************************************************************************
************************************************************************