*Heading
************************************************************************
** PARAMETERS (SI UNIT SYSTEM)
************************************************************************
*Parameter
** geometric parameters, element properties, and material ID
nDim        = 2
nStress     = 3
nNode       = 4
nInt        = 4
fbar        = 0
matID       = 1
nIons       = 2
nIonProps   = 5
matProps    = 15 + nIons*nIonProps
intProps    = 5
nstatev     = (nIons + 2)
nsvars      = nstatev*nInt
nPostVars   = 2*nStress + nstatev
**
** properties of rubber substrate
**
Grubber     = 66.0e3        
Krubber     = 100.0*Grubber
C10         = Grubber/2.0 
Drubber     = 2.0/Krubber
**
** physical constants and material properties
**
Rgas        = 8.3145
Fcon        = 96485.0
theta       = 298.0
phi0        = 0.10
rho         = 1100.0
Gshear      = 33.0e3
kappa       = 50.0*Gshear
pKa         = 5.0
Cp_fix      = 150.0
Vp          = 8.928e-3
Zp          = 1.0
mu0         = 0.0
Vw          = 1.8e-5
chi         = 0.40
Dw          = 9e-7
**
** properties of ions in gel
**
Cion1_gel   = 50.0
Cion2_gel   = 200.0
Omg0_1      = 0.
Omg0_2      = 0.
Vion_1      = 2.38e-6
Vion_2      = 2.24e-6
Zion_1      = 1.0
Zion_2      = -1.0
Dion_1      = 4.0e-8
Dion_2      = 4.0e-8
**
** initial conditions in gel (assuming zero electric potential and pressure)
**
RT          = Rgas*theta
Cw0_gel     = (1.0 - phi0)/Vw
**
initMU      = mu0 + RT*(phi0+log(1-phi0)+chi*phi0**2) - RT/Cw0_gel*(Cion1_gel + Cion2_gel)
initOmg1    = Omg0_1 + RT*log(Cion1_gel/Cw0_gel)
initOmg2    = Omg0_2 + RT*log(Cion2_gel/Cw0_gel)
**
** properties of ions in low salt solution
**
Cw_sol        = 55000.0
**
Cion1_sol     = 700.0
Cion2_sol     = 700.0
**
mu_sol        = mu0 - RT/Cw_sol*(Cion1_sol + Cion2_sol)
omg1_sol      = Omg0_1 + RT*log(Cion1_sol/Cw_sol)
omg2_sol      = Omg0_2 + RT*log(Cion2_sol/Cw_sol)
**
*************************************************************************
** time parameters
t_swell         = 3600.0*6.0
tRamp_swl       = 180.0
dtInit_swl      = 1.0e-3
dtMax_swl       = 300.0
**
dtMin           = 1.0e-15
**
************************************************************************
** GEOMETRY and MESH
************************************************************************
*Node
1, 0.000000000000, 0.000000000000
2, 0.000100000000, 0.000000000000
3, 0.000200000000, 0.000000000000
4, 0.000300000000, 0.000000000000
5, 0.000400000000, 0.000000000000
6, 0.000500000000, 0.000000000000
7, 0.000600000000, 0.000000000000
8, 0.000700000000, 0.000000000000
9, 0.000800000000, 0.000000000000
10, 0.000900000000, 0.000000000000
11, 0.001000000000, 0.000000000000
12, 0.001100000000, 0.000000000000
13, 0.001200000000, 0.000000000000
14, 0.001300000000, 0.000000000000
15, 0.001400000000, 0.000000000000
16, 0.001500000000, 0.000000000000
17, 0.001600000000, 0.000000000000
18, 0.001700000000, 0.000000000000
19, 0.001800000000, 0.000000000000
20, 0.001900000000, 0.000000000000
** ... 526 like lines cut
*Element, type=CPE4H
1, 1, 2, 28, 27
2, 2, 3, 29, 28
3, 3, 4, 30, 29
4, 4, 5, 31, 30
5, 5, 6, 32, 31
6, 6, 7, 33, 32
7, 7, 8, 34, 33
8, 8, 9, 35, 34
9, 9, 10, 36, 35
10, 10, 11, 37, 36
11, 11, 12, 38, 37
12, 12, 13, 39, 38
13, 13, 14, 40, 39
14, 14, 15, 41, 40
15, 15, 16, 42, 41
16, 16, 17, 43, 42
17, 17, 18, 44, 43
18, 18, 19, 45, 44
19, 19, 20, 46, 45
20, 20, 21, 47, 46
** ... 230 like lines cut
*User Element,Type=U6,Coordinates=<nDim>,Nodes=<nNode>,Properties=<matProps>,Iproperties=<intProps>,Variables=<nsvars>,Unsymm
1,2,11,12,13
*Element, type=U6
251, 261, 262, 288, 287
252, 262, 263, 289, 288
253, 263, 264, 290, 289
254, 264, 265, 291, 290
255, 265, 266, 292, 291
256, 266, 267, 293, 292
257, 267, 268, 294, 293
258, 268, 269, 295, 294
259, 269, 270, 296, 295
260, 270, 271, 297, 296
261, 271, 272, 298, 297
262, 272, 273, 299, 298
263, 273, 274, 300, 299
264, 274, 275, 301, 300
265, 275, 276, 302, 301
266, 276, 277, 303, 302
267, 277, 278, 304, 303
268, 278, 279, 305, 304
269, 279, 280, 306, 305
270, 280, 281, 307, 306
** ... 230 like lines cut
*System
*Nset, nset=all, generate
1, 546, 1
*Elset, elset=all, generate
1, 500, 1
*Nset, nset=bottom, generate
1, 26, 1
*Elset, elset=bottom, generate
1, 25, 1
*Nset, nset=gel, generate
261, 546, 1
*Elset, elset=gel, generate
251, 500, 1
*Nset, nset=left, generate
1, 521, 26
*Elset, elset=left, generate
1, 476, 25
*Nset, nset=pinned
1, 
*Nset, nset=right, generate
26, 546, 26
*Elset, elset=right, generate
25, 500, 25
*Nset, nset=rubber, generate
1, 275, 1
*Elset, elset=rubber, generate
1, 250, 1
*Nset, nset=top, generate
521, 546, 1
*Elset, elset=top, generate
476, 500, 1
*Element, type=CPE4
100251, 261, 262, 288, 287
100252, 262, 263, 289, 288
100253, 263, 264, 290, 289
100254, 264, 265, 291, 290
100255, 265, 266, 292, 291
100256, 266, 267, 293, 292
100257, 267, 268, 294, 293
100258, 268, 269, 295, 294
100259, 269, 270, 296, 295
100260, 270, 271, 297, 296
100261, 271, 272, 298, 297
100262, 272, 273, 299, 298
100263, 273, 274, 300, 299
100264, 274, 275, 301, 300
100265, 275, 276, 302, 301
100266, 276, 277, 303, 302
100267, 277, 278, 304, 303
100268, 278, 279, 305, 304
100269, 279, 280, 306, 305
100270, 280, 281, 307, 306
** ... 230 like lines cut
*Elset, elset=ElDummy, generate
100251, 100500, 1
*Node
999996,  0.02E-3, 0.02E-3
999997,  0.02001e-3, 0.02E-3
999998,  0.02001e-3, 0.02001e-3
999999,  0.02E-3, 0.02001e-3
*Element, Type=CPE4T
999999,999996,999997,999998,999999
*Nset, nset=extraElement
999996,999997,999998,999999
*Elset,elset=extraElement
999999
***************************************************************************
** MATERIAL DEFINITION
***************************************************************************
** Material properties for the Swellable Gel Elements
*uel property,elset=gel
** Rgas Fcon theta phi0 rho Gshear kappa pKa
<Rgas>, <Fcon>, <theta>, <phi0>, <rho>, <Gshear>, <kappa>, <pKa>,
** Cp_fx Vp Zp mu0 Vw chi Dw Cion(k)
<Cp_fix>, <Vp>, <Zp>, <mu0>, <Vw>, <chi>, <Dw>, <Cion1_gel>,
** Cion_gel(k) ... Omg0(k) ... Vion(k)
<Omg0_1>, <Vion_1>, <Zion_1>, <Dion_1>, <Cion2_gel>, <Omg0_2>, <Vion_2>, <Zion_2>,
** Zion(k) ... Dion(k) nInt fbar matID nIonProps nPostVars
<Dion_2>, <nInt>, <fbar>, <matID>, <nIonProps>, <nPostVars>
**
***************************************************************************
*Solid section, elset=rubber, material=rubber
**
*Material, name=rubber
*Hyperelastic, neo hooke
<C10>,<Drubber>
***************************************************************************
*Solid section, elset=ElDummy, material=DummyMaterial
*Material, name=DummyMaterial
*Elastic
1.e-20
**
*User output variables
<nPostVars>
***************************************************************************
*Solid section, elset=extraElement, material=extraMaterial
*Material, name=extraMaterial
*Elastic
1.e-20
*Conductivity
1.0
*Density
1.0
*Specific heat
1.0
************************************************************************
** AMPLITUDE DEFINITION
************************************************************************
** as-prepared to low salt solution
*Amplitude, name=mu_prep_to_sol, definition = smooth step
0.0, <initMU>, <tRamp_swl>, <mu_sol>
*Amplitude, name=omg1_prep_to_sol, definition = smooth step
0.0, <initOmg1>, <tRamp_swl>, <omg1_sol>
*Amplitude, name=omg2_prep_to_sol, definition = smooth step
0.0, <initOmg2>, <tRamp_swl>, <omg2_sol>
**
************************************************************************
** INITIAL CONDITIONS
************************************************************************
** Define the initial chemical potential
*Initial conditions, type=temperature
gel, <initMU>, <initOmg1>, <initOmg2>
** Define an arbitrary initial condition for the ‘‘extra’’ element.
*Initial conditions, type=temperature
extraElement, 0.0
************************************************************************
** STEP DEFINITION
************************************************************************
*Step, Name=swell_bend, nlgeom=yes, inc=50000, UNSYMM=YES
*Coupled temperature-displacement, stabilize, deltmx=100.0
<dtInit_swl>, <t_swell>, <dtMin>, <dtMax_swl>
*CONTROLS, PARAMETERS=TIME INCREMENTATION
,,,,,,,30,,,,,,
*CONTROLS, PARAMETERS=LINE SEARCH
10,1.0,0.0001,0.25,0.10
**
*Boundary
left,1,1,0.0
pinned,2,2,0.0
** direct amplitude BC
*Boundary, amplitude=mu_prep_to_sol
top, 11, 11, 1.0
*Boundary, amplitude=omg1_prep_to_sol
top, 12, 12, 1.0
*Boundary, amplitude=omg2_prep_to_sol
top, 13, 13, 1.0
**
*Boundary
extraElement,encastre
extraElement,11,11,0.0
**
*Restart, write, overlay
*Output, field, frequency=2, time marks=no
*node output, nset=all
u, nt, rf
** specify the user-defined output for the dummy element set
*element output, elset=elDummy
uvarm, le
*element output, elset=rubber
le, s
*End Step
*************************************************************************
*************************************************************************